FoamFile
{
	version	2.0;
	class	dictionary;
	format	ascii;
	location	"constant";
	object	turbulenceProperties;
}
simulationType	RAS;
RAS
{
	printCoeffs	on;
	RASModel	PINNkOmegaSST;
	
	
	turbulence      on;
    printCoeffs     on;
	
	PINNkOmegaSSTCoeffs
	{
	    critical    5;
	}
}
