/*--------------------------------*- C++ -*----------------------------------*\
| =========                 |                                                 |
| \\      /  F ield         | OpenFOAM: The Open Source CFD Toolbox           |
|  \\    /   O peration     | Version:  v2212                                 |
|   \\  /    A nd           | Website:  www.openfoam.com                      |
|    \\/     M anipulation  |                                                 |
\*---------------------------------------------------------------------------*/
FoamFile
{
    version     2.0;
    format      ascii;
    class       dictionary;
    object      extrudeProperties;
}
// * * * * * * * * * * * * * * * * * * * * * * * * * * * * * * * * * * * * * //

constructFrom   patch;
sourceCase      ".";

sourcePatches   (FRONT);
exposedPatchName BACK;

extrudeModel    wedge;

sectorCoeffs
{
    axisPt       (0 0 0);
    axis         (0 0 1);
    angle        2.5;
}

flipNormals     false;

mergeFaces      false;

// * * * * * * * * * * * * * * * * * * * * * * * * * * * * * * * * * * * * * //
