/*--------------------------------*- C++ -*----------------------------------*\
| =========                 |                                                 |
| \\      /  F ield         | OpenFOAM: The Open Source CFD Toolbox           |
|  \\    /   O peration     | Version:  5                                     |
|   \\  /    A nd           | Web:      www.OpenFOAM.org                      |
|    \\/     M anipulation  |                                                 |
\*---------------------------------------------------------------------------*/
FoamFile
{
    version     2.0;
    format      ascii;
    class       dictionary;
    location    "system";
    object      topoSetDict.1;
}
// * * * * * * * * * * * * * * * * * * * * * * * * * * * * * * * * * * * * * //

actions
(
    {
        name    c0;
        type    cellSet;
        action  new;
        source      cylinderToCell; //source  boxToCell;
        /*sourceInfo
        {
            box (-0.08 -0.08 0.01) (0.08 0.08 1);//需要进行细化的区域
        }*/
        sourceInfo
        {
        p2  (0 0 -1);
        p1  (0  0 1);
        radius 0.08;
        }
        
    }
);

// ************************************************************************* //
